/*--------------------------------*- C++ -*----------------------------------*\
  =========                 |
  \\      /  F ield         | OpenFOAM: The Open Source CFD Toolbox
   \\    /   O peration     | Website:  https://openfoam.org
    \\  /    A nd           | Version:  8
     \\/     M anipulation  |
\*---------------------------------------------------------------------------*/
FoamFile
{
    version     2.0;
    format      binary;
    class       polyBoundaryMesh;
    location    "constant/polyMesh";
    object      boundary;
}
// * * * * * * * * * * * * * * * * * * * * * * * * * * * * * * * * * * * * * //

4
(
    inlet
    {
        type            patch;
        nFaces          582;
        startFace       596934;
    }
    outlet
    {
        type            patch;
        nFaces          38;
        startFace       597516;
    }
    atmosphere
    {
        type            patch;
        nFaces          4333;
        startFace       597554;
    }
    walls
    {
        type            wall;
        nFaces          18919;
        startFace       601887;
    }
)

// ************************************************************************* //
